.Model NMOS NMOS(Vto=0.8V Kp=45u Lambda=0.01 Gamma=0.4 phi=0.6)
.Model PMOS PMOS (Vto=-0.9V Kp=33u Lambda=0.02 Gamma=0.4 phi=0.6)
Vdd Vdd Gnd 5V

Vin1 A0 Gnd pulse(0 5v 0 1n 1n 100n 100n)
Vin2 B0 Gnd pulse(0 5v 0 1n 1n 100n 100n)

Vin3 A1 Gnd pulse(0 5v 0 1n 1n 100n 100n)
Vin4 B1 Gnd pulse(0 5v 0 1n 1n 100n 100n)


.Tran 1ns 100ns
**.power Vdd A 10000ns
*.print V(A0) V(B0)V(A1) V(B1)
.print V(D0) V(D1) V(Bout)