.Model NMOS NMOS(Vto=0.8V Kp=45u Lambda=0.01 Gamma=0.4 phi=0.6)
.Model PMOS PMOS (Vto=-0.9V Kp=33u Lambda=0.02 Gamma=0.4 phi=0.6)

Vdd Vdd Gnd 5V
Vin1 A Gnd pulse(0 5v 40n 1n 1n 40n 80n)
Vin2 B Gnd pulse(0 5v 20n 1n 1n 20n 40n)
Vin3 Bin Gnd pulse(0 5v 10n 1n 1n 10n 20n)
.Tran 1ns 100ns
.print V(A) V(B) V(Bin) V(Diff) V(Bout)
