.Model NMOS NMOS(Vto=0.8V Kp=45u Lambda=0.01 Gamma=0.4 phi=0.6)
.Model PMOS PMOS (Vto=-0.9V Kp=33u Lambda=0.02 Gamma=0.4 phi=0.6)

Vdd Vdd Gnd 5V

Vin1 BL Gnd pulse(0 5v 0 1n 1n 10n 20n)
Vin2 BL_Br Gnd pulse(5v 0 0 1n 1n 10n 20n)
Vin3 WL Gnd pulse(0 5v 0 1n 1n 40n 70n)

.Tran 1ns 100ns
.print V(BL) V(BL_Br) V(WL) V(Q) V(Q_Br)