.Model NMOS NMOS(Vto=0.8V Kp=45u Lambda=0.01 Gamma=0.4 phi=0.6)
.Model PMOS PMOS (Vto=-0.9V Kp=33u Lambda=0.02 Gamma=0.4 phi=0.6)
Vdd Vdd Gnd 5V
Vin1 D Gnd pulse(0 3.3v 0 1n 1n 10n 20n)
Vin2 CLK Gnd pulse(0 3.3v 0 1n 1n 5n 10n)
.Tran 1ns 100ns
.print V(D) V(CLK) V(Q) V(Qbar)