
.Model NMOS NMOS(Vto=0.8V Kp=45u Lambda=0.01 Gamma=0.4 phi=0.6)
.Model PMOS PMOS (Vto=-0.9V Kp=33u Lambda=0.02 Gamma=0.4 phi=0.6)

Vdd Vdd Gnd 3.3V

Vin1 I0 Gnd pulse(0 3.3v 0 1n 1n 10n 20n)
Vin2 I1 Gnd pulse(0 3.3v 10n 1n 1n 10n 20n)

Vin3 S Gnd pulse(0 3.3v 0 1n 1n 50n 100n)

.Tran 1ns 100ns
.print V(I0) V(I1) V(S) V(Y)