.Model NMOS NMOS(Vto=0.8V Kp=45u Lambda=0.01 Gamma=0.4 phi=0.6)
.Model PMOS PMOS (Vto=-0.9V Kp=33u Lambda=0.02 Gamma=0.4 phi=0.6)
Vdd Vdd Gnd 3.3V
Vin1 A Gnd pulse(0 3.3v 0 1n 1n 60n 100n)
Vin2 B Gnd pulse(0 3.3v 0 1n 1n 40n 80n)
Vin3 C Gnd pulse(0 3.3v 0 1n 1n 20n 60n)
.Tran 1ns 100ns
**.power Vdd A 10000ns
.print V(A) V(B) V(C) V(SUM) V(CARRY)